Test_Network/network_26/Feeder_1/Lines.txt
New Line.LINE32 Bus1=32 Bus2=33 phases=3 Linecode=4c_.25 Length=1.5571 Units=m
New Line.LINE33 Bus1=32 Bus2=34 phases=3 Linecode=4c_.25 Length=1.5571 Units=m
New Line.LINE34 Bus1=33 Bus2=35 phases=3 Linecode=4c_.25 Length=7.5169 Units=m
New Line.LINE35 Bus1=33 Bus2=36 phases=3 Linecode=4c_.25 Length=7.5169 Units=m
New Line.LINE36 Bus1=35 Bus2=37 phases=3 Linecode=4c_.25 Length=1.1775 Units=m
New Line.LINE37 Bus1=35 Bus2=38 phases=3 Linecode=4c_.25 Length=1.1775 Units=m
New Line.LINE38 Bus1=37 Bus2=39 phases=3 Linecode=4c_.25 Length=0.406 Units=m
New Line.LINE39 Bus1=37 Bus2=40 phases=3 Linecode=4c_.25 Length=0.406 Units=m
New Line.LINE40 Bus1=39 Bus2=41 phases=3 Linecode=4c_.25 Length=0.38134 Units=m
New Line.LINE41 Bus1=39 Bus2=42 phases=3 Linecode=4c_.25 Length=0.38134 Units=m
New Line.LINE42 Bus1=41 Bus2=43 phases=3 Linecode=4c_.25 Length=0.41665 Units=m
New Line.LINE43 Bus1=41 Bus2=44 phases=3 Linecode=4c_.25 Length=0.41665 Units=m
New Line.LINE44 Bus1=43 Bus2=45 phases=3 Linecode=4c_.25 Length=0.2658 Units=m
New Line.LINE45 Bus1=43 Bus2=46 phases=3 Linecode=4c_.25 Length=0.2658 Units=m
New Line.LINE46 Bus1=45 Bus2=47 phases=3 Linecode=4c_.25 Length=0.2377 Units=m
New Line.LINE47 Bus1=45 Bus2=48 phases=3 Linecode=4c_.25 Length=0.2377 Units=m
New Line.LINE48 Bus1=47 Bus2=49 phases=3 Linecode=4c_.25 Length=0.23755 Units=m
New Line.LINE49 Bus1=47 Bus2=50 phases=3 Linecode=4c_.25 Length=0.23755 Units=m
New Line.LINE50 Bus1=49 Bus2=51 phases=3 Linecode=4c_.25 Length=1.0978 Units=m
New Line.LINE51 Bus1=49 Bus2=52 phases=3 Linecode=4c_.25 Length=1.0978 Units=m
New Line.LINE52 Bus1=51 Bus2=53 phases=3 Linecode=4c_.25 Length=23.3695 Units=m
New Line.LINE53 Bus1=51 Bus2=54 phases=3 Linecode=4c_.25 Length=23.3695 Units=m
New Line.LINE54 Bus1=53 Bus2=55 phases=3 Linecode=4c_.25 Length=1.9527 Units=m
New Line.LINE55 Bus1=53 Bus2=56 phases=3 Linecode=2c_.04 Length=6.7095 Units=m
New Line.LINE56 Bus1=53 Bus2=57 phases=3 Linecode=4c_.25 Length=1.9527 Units=m
New Line.LINE57 Bus1=55 Bus2=58 phases=3 Linecode=4c_.25 Length=5.6386 Units=m
New Line.LINE61 Bus1=58 Bus2=62 phases=3 Linecode=4c_.25 Length=4.8727 Units=m
New Line.LINE62 Bus1=58 Bus2=63 phases=3 Linecode=4c_.25 Length=4.8727 Units=m
New Line.LINE63 Bus1=58 Bus2=64 phases=3 Linecode=4c_.25 Length=0.3972 Units=m
New Line.LINE67 Bus1=62 Bus2=68 phases=3 Linecode=4c_.25 Length=24.3926 Units=m
New Line.LINE72 Bus1=68 Bus2=73 phases=3 Linecode=4c_.25 Length=7.4333 Units=m
New Line.LINE73 Bus1=68 Bus2=74 phases=3 Linecode=4c_.25 Length=7.4333 Units=m
New Line.LINE74 Bus1=68 Bus2=75 phases=3 Linecode=4c_.25 Length=13.0528 Units=m
New Line.LINE79 Bus1=73 Bus2=80 phases=3 Linecode=4c_.25 Length=8.054 Units=m
New Line.LINE80 Bus1=73 Bus2=81 phases=3 Linecode=4c_.25 Length=8.054 Units=m
New Line.LINE85 Bus1=80 Bus2=86 phases=3 Linecode=4c_.25 Length=3.1751 Units=m
New Line.LINE86 Bus1=80 Bus2=87 phases=3 Linecode=4c_.25 Length=3.1751 Units=m
New Line.LINE91 Bus1=86 Bus2=92 phases=3 Linecode=4c_.25 Length=3.7711 Units=m
New Line.LINE92 Bus1=86 Bus2=93 phases=3 Linecode=4c_.25 Length=3.7711 Units=m
New Line.LINE101 Bus1=96 Bus2=102 phases=3 Linecode=2c_.04 Length=3.3635 Units=m
New Line.LINE103 Bus1=97 Bus2=104 phases=3 Linecode=2c_.04 Length=4.0329 Units=m
New Line.LINE104 Bus1=97 Bus2=105 phases=3 Linecode=2c_.04 Length=0.71111 Units=m
New Line.LINE105 Bus1=97 Bus2=106 phases=3 Linecode=2c_.04 Length=0.71111 Units=m
New Line.LINE111 Bus1=105 Bus2=112 phases=3 Linecode=2c_.04 Length=0.22682 Units=m
New Line.LINE112 Bus1=105 Bus2=113 phases=3 Linecode=2c_.04 Length=0.22682 Units=m
New Line.LINE114 Bus1=107 Bus2=115 phases=3 Linecode=4c_.25 Length=8.3151 Units=m
New Line.LINE118 Bus1=112 Bus2=119 phases=3 Linecode=2c_.04 Length=0.116 Units=m
New Line.LINE119 Bus1=112 Bus2=120 phases=3 Linecode=2c_.04 Length=0.116 Units=m
New Line.LINE122 Bus1=115 Bus2=123 phases=3 Linecode=4c_.25 Length=4.1369 Units=m
New Line.LINE126 Bus1=119 Bus2=127 phases=3 Linecode=2c_.04 Length=0.13396 Units=m
New Line.LINE127 Bus1=119 Bus2=128 phases=3 Linecode=2c_.04 Length=0.13396 Units=m
New Line.LINE130 Bus1=123 Bus2=131 phases=3 Linecode=2c_.04 Length=7.2512 Units=m
New Line.LINE135 Bus1=127 Bus2=136 phases=3 Linecode=2c_.04 Length=0.053601 Units=m
New Line.LINE136 Bus1=127 Bus2=137 phases=3 Linecode=2c_.04 Length=0.053601 Units=m
New Line.LINE140 Bus1=131 Bus2=141 phases=3 Linecode=2c_.04 Length=4.6693 Units=m
New Line.LINE145 Bus1=136 Bus2=146 phases=3 Linecode=2c_.04 Length=0.12468 Units=m
New Line.LINE146 Bus1=136 Bus2=147 phases=3 Linecode=2c_.04 Length=0.12468 Units=m
New Line.LINE150 Bus1=142 Bus2=151 phases=3 Linecode=2c_.04 Length=6.0658 Units=m
New Line.LINE155 Bus1=146 Bus2=156 phases=3 Linecode=2c_.04 Length=1.4705 Units=m
New Line.LINE207 Bus1=198 Bus2=208 phases=3 Linecode=4c_.25 Length=4.3073 Units=m
New Line.LINE210 Bus1=200 Bus2=211 phases=3 Linecode=4c_.25 Length=11.0652 Units=m
New Line.LINE211 Bus1=201 Bus2=212 phases=3 Linecode=2c_.04 Length=4.0654 Units=m
New Line.LINE216 Bus1=205 Bus2=217 phases=3 Linecode=2c_.04 Length=4.0018 Units=m
New Line.LINE224 Bus1=211 Bus2=225 phases=3 Linecode=4c_.25 Length=13.706 Units=m
New Line.LINE227 Bus1=214 Bus2=228 phases=3 Linecode=2c_.04 Length=4.2218 Units=m
New Line.LINE231 Bus1=218 Bus2=232 phases=3 Linecode=2c_.04 Length=4.2077 Units=m
New Line.LINE239 Bus1=225 Bus2=240 phases=3 Linecode=4c_.25 Length=1.5617 Units=m
New Line.LINE257 Bus1=243 Bus2=258 phases=3 Linecode=2c_.04 Length=5.0758 Units=m
New Line.LINE266 Bus1=251 Bus2=267 phases=3 Linecode=2c_.04 Length=6.7974 Units=m
New Line.LINE280 Bus1=265 Bus2=281 phases=3 Linecode=2c_.04 Length=2.815 Units=m
New Line.LINE292 Bus1=278 Bus2=293 phases=3 Linecode=4c_.25 Length=9.6214 Units=m
New Line.LINE293 Bus1=278 Bus2=294 phases=3 Linecode=2c_.04 Length=7.5007 Units=m
New Line.LINE299 Bus1=284 Bus2=300 phases=3 Linecode=4c_.25 Length=10.3655 Units=m
New Line.LINE309 Bus1=294 Bus2=310 phases=3 Linecode=2c_.04 Length=2.467 Units=m
New Line.LINE346 Bus1=331 Bus2=347 phases=3 Linecode=2c_.04 Length=2.0509 Units=m
New Line.LINE347 Bus1=331 Bus2=348 phases=3 Linecode=4c_.25 Length=2.0509 Units=m
New Line.LINE348 Bus1=331 Bus2=349 phases=3 Linecode=4c_.25 Length=3.9607 Units=m
New Line.LINE365 Bus1=347 Bus2=366 phases=3 Linecode=2c_.04 Length=7.5169 Units=m
New Line.LINE366 Bus1=347 Bus2=367 phases=3 Linecode=2c_.04 Length=7.5169 Units=m
New Line.LINE367 Bus1=349 Bus2=368 phases=3 Linecode=2c_.04 Length=4.3534 Units=m
New Line.LINE384 Bus1=366 Bus2=385 phases=3 Linecode=2c_.04 Length=0.34637 Units=m
New Line.LINE385 Bus1=366 Bus2=386 phases=3 Linecode=2c_.04 Length=0.34637 Units=m
New Line.LINE404 Bus1=385 Bus2=405 phases=3 Linecode=2c_.04 Length=5.2475 Units=m
New Line.LINE405 Bus1=385 Bus2=406 phases=3 Linecode=2c_.04 Length=5.2475 Units=m
New Line.LINE424 Bus1=405 Bus2=425 phases=3 Linecode=2c_.04 Length=0.24271 Units=m
New Line.LINE425 Bus1=405 Bus2=426 phases=3 Linecode=2c_.04 Length=0.24271 Units=m
New Line.LINE440 Bus1=421 Bus2=441 phases=3 Linecode=2c_.04 Length=8.22 Units=m
New Line.LINE441 Bus1=421 Bus2=442 phases=3 Linecode=2c_.04 Length=3.4826 Units=m
New Line.LINE445 Bus1=424 Bus2=446 phases=3 Linecode=2c_.04 Length=4.5578 Units=m
New Line.LINE451 Bus1=430 Bus2=452 phases=3 Linecode=2c_.007 Length=0.15228 Units=m
New Line.LINE452 Bus1=430 Bus2=453 phases=3 Linecode=2c_.007 Length=0.15228 Units=m
New Line.LINE453 Bus1=430 Bus2=454 phases=3 Linecode=4c_.25 Length=5.4735 Units=m
New Line.LINE464 Bus1=444 Bus2=465 phases=3 Linecode=2c_.04 Length=4.384 Units=m
New Line.LINE471 Bus1=452 Bus2=472 phases=3 Linecode=2c_.007 Length=0.191 Units=m
New Line.LINE472 Bus1=452 Bus2=473 phases=3 Linecode=2c_.007 Length=0.191 Units=m
New Line.LINE473 Bus1=454 Bus2=474 phases=3 Linecode=4c_.12 Length=0.30327 Units=m
New Line.LINE474 Bus1=454 Bus2=475 phases=3 Linecode=4c_.25 Length=4.2746 Units=m
New Line.LINE475 Bus1=454 Bus2=476 phases=3 Linecode=4c_.12 Length=0.30327 Units=m
New Line.LINE476 Bus1=454 Bus2=477 phases=3 Linecode=4c_.25 Length=4.2746 Units=m
New Line.LINE492 Bus1=469 Bus2=493 phases=3 Linecode=2c_25 Length=5.3207 Units=m
New Line.LINE495 Bus1=472 Bus2=496 phases=3 Linecode=2c_.007 Length=0.3644 Units=m
New Line.LINE496 Bus1=472 Bus2=497 phases=3 Linecode=2c_.007 Length=0.3644 Units=m
New Line.LINE497 Bus1=474 Bus2=498 phases=3 Linecode=4c_.12 Length=0.099021 Units=m
New Line.LINE498 Bus1=474 Bus2=499 phases=3 Linecode=4c_.12 Length=0.099021 Units=m
New Line.LINE499 Bus1=475 Bus2=500 phases=3 Linecode=4c_.25 Length=11.1591 Units=m
New Line.LINE500 Bus1=475 Bus2=501 phases=3 Linecode=4c_.25 Length=11.1591 Units=m
New Line.LINE506 Bus1=483 Bus2=507 phases=3 Linecode=3c_.04 Length=3.5235 Units=m
New Line.LINE517 Bus1=494 Bus2=518 phases=3 Linecode=2c_25 Length=6.9692 Units=m
New Line.LINE519 Bus1=496 Bus2=520 phases=3 Linecode=2c_.007 Length=0.229 Units=m
New Line.LINE520 Bus1=496 Bus2=521 phases=3 Linecode=2c_.007 Length=0.229 Units=m
New Line.LINE521 Bus1=498 Bus2=522 phases=3 Linecode=4c_.12 Length=0.14776 Units=m
New Line.LINE522 Bus1=498 Bus2=523 phases=3 Linecode=4c_.12 Length=0.14776 Units=m
New Line.LINE523 Bus1=500 Bus2=524 phases=3 Linecode=4c_.25 Length=2.0969 Units=m
New Line.LINE524 Bus1=500 Bus2=525 phases=3 Linecode=4c_.25 Length=2.0969 Units=m
New Line.LINE527 Bus1=504 Bus2=528 phases=3 Linecode=2c_.04 Length=7.2537 Units=m
New Line.LINE528 Bus1=504 Bus2=529 phases=3 Linecode=4c_.06 Length=1.6403 Units=m
New Line.LINE530 Bus1=505 Bus2=531 phases=3 Linecode=3c_.04 Length=5.3906 Units=m
New Line.LINE543 Bus1=520 Bus2=544 phases=3 Linecode=2c_.007 Length=1.58 Units=m
New Line.LINE544 Bus1=520 Bus2=545 phases=3 Linecode=2c_.007 Length=1.58 Units=m
New Line.LINE545 Bus1=522 Bus2=546 phases=3 Linecode=4c_.12 Length=0.23526 Units=m
New Line.LINE546 Bus1=522 Bus2=547 phases=3 Linecode=4c_.12 Length=0.23526 Units=m
New Line.LINE547 Bus1=524 Bus2=548 phases=3 Linecode=4c_.06 Length=0.19488 Units=m
New Line.LINE548 Bus1=524 Bus2=549 phases=3 Linecode=4c_.25 Length=4.4845 Units=m
New Line.LINE549 Bus1=524 Bus2=550 phases=3 Linecode=4c_.06 Length=0.19488 Units=m
New Line.LINE559 Bus1=534 Bus2=560 phases=3 Linecode=2c_.04 Length=4.8635 Units=m
New Line.LINE569 Bus1=544 Bus2=570 phases=3 Linecode=2c_.007 Length=7.2733 Units=m
New Line.LINE570 Bus1=544 Bus2=571 phases=3 Linecode=2c_.007 Length=7.2733 Units=m
New Line.LINE571 Bus1=546 Bus2=572 phases=3 Linecode=4c_.12 Length=0.12778 Units=m
New Line.LINE572 Bus1=546 Bus2=573 phases=3 Linecode=4c_.12 Length=0.12778 Units=m
New Line.LINE573 Bus1=548 Bus2=574 phases=3 Linecode=4c_.06 Length=0.226 Units=m
New Line.LINE574 Bus1=548 Bus2=575 phases=3 Linecode=4c_.06 Length=0.226 Units=m
New Line.LINE576 Bus1=549 Bus2=577 phases=3 Linecode=4c_.25 Length=8.2993 Units=m
New Line.LINE589 Bus1=565 Bus2=590 phases=3 Linecode=2c_.04 Length=3.7153 Units=m
New Line.LINE595 Bus1=570 Bus2=596 phases=3 Linecode=2c_.007 Length=0.63434 Units=m
New Line.LINE596 Bus1=570 Bus2=597 phases=3 Linecode=2c_.007 Length=0.63434 Units=m
New Line.LINE597 Bus1=572 Bus2=598 phases=3 Linecode=4c_.12 Length=0.14674 Units=m
New Line.LINE598 Bus1=572 Bus2=599 phases=3 Linecode=4c_.12 Length=0.14674 Units=m
New Line.LINE599 Bus1=574 Bus2=600 phases=3 Linecode=4c_.06 Length=0.26816 Units=m
New Line.LINE600 Bus1=574 Bus2=601 phases=3 Linecode=4c_.06 Length=0.26816 Units=m
New Line.LINE602 Bus1=577 Bus2=603 phases=3 Linecode=2c_.04 Length=8.5981 Units=m
New Line.LINE603 Bus1=577 Bus2=604 phases=3 Linecode=4c_.25 Length=4.3797 Units=m
New Line.LINE604 Bus1=577 Bus2=605 phases=3 Linecode=2c_.04 Length=8.5981 Units=m
New Line.LINE619 Bus1=592 Bus2=620 phases=3 Linecode=2c_.04 Length=4.7061 Units=m
New Line.LINE620 Bus1=592 Bus2=621 phases=3 Linecode=2c_.04 Length=0.44411 Units=m
New Line.LINE621 Bus1=592 Bus2=622 phases=3 Linecode=2c_.04 Length=0.44411 Units=m
New Line.LINE624 Bus1=596 Bus2=625 phases=3 Linecode=2c_.007 Length=0.12503 Units=m
New Line.LINE625 Bus1=596 Bus2=626 phases=3 Linecode=2c_.007 Length=0.12503 Units=m
New Line.LINE626 Bus1=598 Bus2=627 phases=3 Linecode=4c_.12 Length=0.15532 Units=m
New Line.LINE627 Bus1=598 Bus2=628 phases=3 Linecode=4c_.12 Length=0.15532 Units=m
New Line.LINE628 Bus1=600 Bus2=629 phases=3 Linecode=4c_.06 Length=1.6267 Units=m
New Line.LINE629 Bus1=600 Bus2=630 phases=3 Linecode=4c_.06 Length=1.6267 Units=m
New Line.LINE631 Bus1=603 Bus2=632 phases=3 Linecode=2c_.04 Length=0.34075 Units=m
New Line.LINE632 Bus1=603 Bus2=633 phases=3 Linecode=2c_.04 Length=0.34075 Units=m
New Line.LINE634 Bus1=604 Bus2=635 phases=3 Linecode=4c_.25 Length=11.0783 Units=m
New Line.LINE638 Bus1=609 Bus2=639 phases=3 Linecode=4c_.04 Length=1.1767 Units=m
New Line.LINE650 Bus1=621 Bus2=651 phases=3 Linecode=2c_.04 Length=0.31851 Units=m
New Line.LINE651 Bus1=621 Bus2=652 phases=3 Linecode=2c_.04 Length=0.31851 Units=m
New Line.LINE654 Bus1=625 Bus2=655 phases=3 Linecode=2c_.007 Length=0.12458 Units=m
New Line.LINE655 Bus1=625 Bus2=656 phases=3 Linecode=2c_.007 Length=0.12458 Units=m
New Line.LINE656 Bus1=627 Bus2=657 phases=3 Linecode=4c_.12 Length=0.22547 Units=m
New Line.LINE657 Bus1=627 Bus2=658 phases=3 Linecode=4c_.12 Length=0.22547 Units=m
New Line.LINE658 Bus1=629 Bus2=659 phases=3 Linecode=4c_.06 Length=0.65031 Units=m
New Line.LINE659 Bus1=629 Bus2=660 phases=3 Linecode=4c_.06 Length=0.65031 Units=m
New Line.LINE661 Bus1=632 Bus2=662 phases=3 Linecode=2c_.04 Length=0.47823 Units=m
New Line.LINE662 Bus1=632 Bus2=663 phases=3 Linecode=2c_.04 Length=0.47823 Units=m
New Line.LINE665 Bus1=635 Bus2=666 phases=3 Linecode=4c_.25 Length=7.5621 Units=m
New Line.LINE668 Bus1=639 Bus2=669 phases=3 Linecode=4c_.04 Length=7.8365 Units=m
New Line.LINE681 Bus1=651 Bus2=682 phases=3 Linecode=2c_.04 Length=0.2201 Units=m
New Line.LINE682 Bus1=651 Bus2=683 phases=3 Linecode=2c_.04 Length=0.2201 Units=m
New Line.LINE685 Bus1=655 Bus2=686 phases=3 Linecode=2c_.007 Length=0.12925 Units=m
New Line.LINE686 Bus1=655 Bus2=687 phases=3 Linecode=2c_.007 Length=0.12925 Units=m
New Line.LINE687 Bus1=657 Bus2=688 phases=3 Linecode=4c_.12 Length=1.4748 Units=m
New Line.LINE688 Bus1=657 Bus2=689 phases=3 Linecode=4c_.12 Length=1.4748 Units=m
New Line.LINE689 Bus1=659 Bus2=690 phases=3 Linecode=4c_.06 Length=0.45069 Units=m
New Line.LINE690 Bus1=659 Bus2=691 phases=3 Linecode=4c_.06 Length=0.45069 Units=m
New Line.LINE692 Bus1=662 Bus2=693 phases=3 Linecode=2c_.04 Length=0.2706 Units=m
New Line.LINE693 Bus1=662 Bus2=694 phases=3 Linecode=2c_.04 Length=0.2706 Units=m
New Line.LINE699 Bus1=667 Bus2=700 phases=3 Linecode=2c_.04 Length=5.4667 Units=m
New Line.LINE701 Bus1=668 Bus2=702 phases=3 Linecode=2c_.04 Length=4.8917 Units=m
New Line.LINE702 Bus1=669 Bus2=703 phases=3 Linecode=16_PSC Length=7.7524 Units=m
New Line.LINE714 Bus1=682 Bus2=715 phases=3 Linecode=2c_.04 Length=0.10576 Units=m
New Line.LINE715 Bus1=682 Bus2=716 phases=3 Linecode=2c_.04 Length=0.10576 Units=m
New Line.LINE718 Bus1=686 Bus2=719 phases=3 Linecode=2c_.007 Length=1.0665 Units=m
New Line.LINE719 Bus1=686 Bus2=720 phases=3 Linecode=2c_.007 Length=1.0665 Units=m
New Line.LINE720 Bus1=688 Bus2=721 phases=3 Linecode=4c_.12 Length=1.9575 Units=m
New Line.LINE721 Bus1=688 Bus2=722 phases=3 Linecode=4c_.12 Length=1.9575 Units=m
New Line.LINE722 Bus1=690 Bus2=723 phases=3 Linecode=4c_.06 Length=0.44106 Units=m
New Line.LINE723 Bus1=690 Bus2=724 phases=3 Linecode=4c_.06 Length=0.44106 Units=m
New Line.LINE725 Bus1=693 Bus2=726 phases=3 Linecode=2c_.04 Length=0.24613 Units=m
New Line.LINE726 Bus1=693 Bus2=727 phases=3 Linecode=2c_.04 Length=0.24613 Units=m
New Line.LINE745 Bus1=715 Bus2=746 phases=3 Linecode=2c_.04 Length=0.2415 Units=m
New Line.LINE746 Bus1=715 Bus2=747 phases=3 Linecode=2c_.04 Length=0.2415 Units=m
New Line.LINE749 Bus1=721 Bus2=750 phases=3 Linecode=4c_.12 Length=2.7016 Units=m
New Line.LINE750 Bus1=721 Bus2=751 phases=3 Linecode=4c_.12 Length=2.7016 Units=m
New Line.LINE751 Bus1=723 Bus2=752 phases=3 Linecode=4c_.06 Length=0.52274 Units=m
New Line.LINE752 Bus1=723 Bus2=753 phases=3 Linecode=4c_.06 Length=0.52274 Units=m
New Line.LINE754 Bus1=726 Bus2=755 phases=3 Linecode=2c_.04 Length=0.16737 Units=m
New Line.LINE755 Bus1=726 Bus2=756 phases=3 Linecode=2c_.04 Length=0.16737 Units=m
New Line.LINE775 Bus1=746 Bus2=776 phases=3 Linecode=2c_.04 Length=6.3121 Units=m
New Line.LINE776 Bus1=746 Bus2=777 phases=3 Linecode=2c_.04 Length=6.3121 Units=m
New Line.LINE778 Bus1=750 Bus2=779 phases=3 Linecode=4c_.12 Length=4.1756 Units=m
New Line.LINE779 Bus1=750 Bus2=780 phases=3 Linecode=4c_.12 Length=4.1756 Units=m
New Line.LINE780 Bus1=752 Bus2=781 phases=3 Linecode=4c_.06 Length=0.62628 Units=m
New Line.LINE781 Bus1=752 Bus2=782 phases=3 Linecode=4c_.06 Length=0.62628 Units=m
New Line.LINE783 Bus1=755 Bus2=784 phases=3 Linecode=2c_.04 Length=0.19958 Units=m
New Line.LINE784 Bus1=755 Bus2=785 phases=3 Linecode=2c_.04 Length=0.19958 Units=m
New Line.LINE804 Bus1=776 Bus2=805 phases=3 Linecode=2c_.04 Length=0.26468 Units=m
New Line.LINE805 Bus1=776 Bus2=806 phases=3 Linecode=2c_.04 Length=0.26468 Units=m
New Line.LINE806 Bus1=779 Bus2=807 phases=3 Linecode=4c_.12 Length=1.19 Units=m
New Line.LINE807 Bus1=779 Bus2=808 phases=3 Linecode=4c_.12 Length=1.19 Units=m
New Line.LINE808 Bus1=781 Bus2=809 phases=3 Linecode=4c_.06 Length=1.669 Units=m
New Line.LINE809 Bus1=781 Bus2=810 phases=3 Linecode=4c_.06 Length=1.669 Units=m
New Line.LINE811 Bus1=784 Bus2=812 phases=3 Linecode=2c_.04 Length=0.33003 Units=m
New Line.LINE812 Bus1=784 Bus2=813 phases=3 Linecode=2c_.04 Length=0.33003 Units=m
New Line.LINE821 Bus1=795 Bus2=822 phases=3 Linecode=16_PSC Length=4.5613 Units=m
New Line.LINE822 Bus1=795 Bus2=823 phases=3 Linecode=16_PSC Length=4.5613 Units=m
New Line.LINE832 Bus1=805 Bus2=833 phases=3 Linecode=2c_.04 Length=0.139 Units=m
New Line.LINE833 Bus1=805 Bus2=834 phases=3 Linecode=2c_.04 Length=0.139 Units=m
New Line.LINE834 Bus1=807 Bus2=835 phases=3 Linecode=4c_.12 Length=1.1864 Units=m
New Line.LINE835 Bus1=807 Bus2=836 phases=3 Linecode=4c_.12 Length=1.1864 Units=m
New Line.LINE836 Bus1=809 Bus2=837 phases=3 Linecode=4c_.06 Length=1.9227 Units=m
New Line.LINE837 Bus1=809 Bus2=838 phases=3 Linecode=4c_.06 Length=1.9227 Units=m
New Line.LINE839 Bus1=812 Bus2=840 phases=3 Linecode=2c_.04 Length=2.5106 Units=m
New Line.LINE857 Bus1=833 Bus2=858 phases=3 Linecode=2c_.04 Length=0.11448 Units=m
New Line.LINE858 Bus1=833 Bus2=859 phases=3 Linecode=2c_.04 Length=0.11448 Units=m
New Line.LINE859 Bus1=835 Bus2=860 phases=3 Linecode=4c_.12 Length=1.0799 Units=m
New Line.LINE860 Bus1=835 Bus2=861 phases=3 Linecode=4c_.12 Length=1.0799 Units=m
New Line.LINE861 Bus1=837 Bus2=862 phases=3 Linecode=4c_.06 Length=1.7159 Units=m
New Line.LINE862 Bus1=837 Bus2=863 phases=3 Linecode=4c_.06 Length=1.7159 Units=m
New Line.LINE865 Bus1=842 Bus2=866 phases=3 Linecode=2c_.04 Length=5.6608 Units=m
New Line.LINE880 Bus1=858 Bus2=881 phases=3 Linecode=2c_.04 Length=0.17866 Units=m
New Line.LINE881 Bus1=858 Bus2=882 phases=3 Linecode=2c_.04 Length=0.17866 Units=m
New Line.LINE882 Bus1=860 Bus2=883 phases=3 Linecode=4c_.12 Length=1.3021 Units=m
New Line.LINE883 Bus1=860 Bus2=884 phases=3 Linecode=4c_.12 Length=1.3021 Units=m
New Line.LINE884 Bus1=862 Bus2=885 phases=3 Linecode=4c_.06 Length=2.0539 Units=m
New Line.LINE885 Bus1=862 Bus2=886 phases=3 Linecode=4c_.06 Length=2.0539 Units=m
New Line.LINE889 Bus1=868 Bus2=890 phases=3 Linecode=2c_.04 Length=4.2233 Units=m
New Line.LINE895 Bus1=874 Bus2=896 phases=3 Linecode=16_PSC Length=2.5914 Units=m
New Line.LINE896 Bus1=874 Bus2=897 phases=3 Linecode=16_PSC Length=2.5914 Units=m
New Line.LINE903 Bus1=881 Bus2=904 phases=3 Linecode=2c_.04 Length=0.49328 Units=m
New Line.LINE904 Bus1=883 Bus2=905 phases=3 Linecode=4c_.12 Length=1.5848 Units=m
New Line.LINE905 Bus1=883 Bus2=906 phases=3 Linecode=4c_.12 Length=1.5848 Units=m
New Line.LINE906 Bus1=885 Bus2=907 phases=3 Linecode=4c_.06 Length=3.9247 Units=m
New Line.LINE907 Bus1=885 Bus2=908 phases=3 Linecode=4c_.06 Length=3.9247 Units=m
New Line.LINE921 Bus1=905 Bus2=922 phases=3 Linecode=4c_.12 Length=1.045 Units=m
New Line.LINE922 Bus1=905 Bus2=923 phases=3 Linecode=4c_.12 Length=1.045 Units=m
New Line.LINE923 Bus1=907 Bus2=924 phases=3 Linecode=4c_.06 Length=12.5796 Units=m
New Line.LINE924 Bus1=907 Bus2=925 phases=3 Linecode=4c_.06 Length=12.5796 Units=m
New Line.LINE936 Bus1=922 Bus2=937 phases=3 Linecode=4c_.12 Length=0.76772 Units=m
New Line.LINE937 Bus1=922 Bus2=938 phases=3 Linecode=4c_.12 Length=0.76772 Units=m
New Line.LINE938 Bus1=924 Bus2=939 phases=3 Linecode=4c_.06 Length=3.6813 Units=m
New Line.LINE939 Bus1=924 Bus2=940 phases=3 Linecode=4c_.06 Length=3.6813 Units=m
New Line.LINE940 Bus1=924 Bus2=941 phases=3 Linecode=2c_.04 Length=7.9167 Units=m
New Line.LINE950 Bus1=935 Bus2=951 phases=3 Linecode=2c_.04 Length=13.2093 Units=m
New Line.LINE952 Bus1=937 Bus2=953 phases=3 Linecode=4c_.12 Length=0.5427 Units=m
New Line.LINE953 Bus1=937 Bus2=954 phases=3 Linecode=4c_.12 Length=0.5427 Units=m
New Line.LINE954 Bus1=939 Bus2=955 phases=3 Linecode=4c_.06 Length=6.9718 Units=m
New Line.LINE955 Bus1=939 Bus2=956 phases=3 Linecode=4c_.06 Length=6.9605 Units=m
New Line.LINE957 Bus1=941 Bus2=958 phases=3 Linecode=2c_.04 Length=5.1934 Units=m
New Line.LINE967 Bus1=951 Bus2=968 phases=3 Linecode=2c_.04 Length=5.0257 Units=m
New Line.LINE969 Bus1=953 Bus2=970 phases=3 Linecode=4c_.12 Length=0.7342 Units=m
New Line.LINE970 Bus1=953 Bus2=971 phases=3 Linecode=4c_.12 Length=0.7342 Units=m
New Line.LINE973 Bus1=956 Bus2=974 phases=3 Linecode=4c_.06 Length=4.4292 Units=m
New Line.LINE974 Bus1=956 Bus2=975 phases=3 Linecode=4c_.06 Length=11.3411 Units=m
New Line.LINE986 Bus1=970 Bus2=987 phases=3 Linecode=4c_.12 Length=1.4204 Units=m
New Line.LINE987 Bus1=970 Bus2=988 phases=3 Linecode=4c_.12 Length=1.4204 Units=m
New Line.LINE990 Bus1=974 Bus2=991 phases=3 Linecode=2c_.04 Length=8.3175 Units=m
New Line.LINE993 Bus1=975 Bus2=994 phases=3 Linecode=4c_.06 Length=2.3398 Units=m
New Line.LINE1005 Bus1=987 Bus2=1006 phases=3 Linecode=4c_.12 Length=1.9818 Units=m
New Line.LINE1006 Bus1=987 Bus2=1007 phases=3 Linecode=4c_.12 Length=1.9818 Units=m
New Line.LINE1011 Bus1=991 Bus2=1012 phases=3 Linecode=2c_.04 Length=5.2332 Units=m
New Line.LINE1024 Bus1=1002 Bus2=1025 phases=3 Linecode=2c_.04 Length=5.9953 Units=m
New Line.LINE1025 Bus1=1002 Bus2=1026 phases=3 Linecode=2c_.04 Length=5.9953 Units=m
New Line.LINE1029 Bus1=1006 Bus2=1030 phases=3 Linecode=4c_.12 Length=1.4764 Units=m
New Line.LINE1031 Bus1=1006 Bus2=1032 phases=3 Linecode=4c_.12 Length=1.4764 Units=m
New Line.LINE1044 Bus1=1021 Bus2=1045 phases=3 Linecode=2c_.04 Length=6.3831 Units=m
New Line.LINE1045 Bus1=1021 Bus2=1046 phases=3 Linecode=2c_.04 Length=6.3831 Units=m
New Line.LINE1051 Bus1=1029 Bus2=1052 phases=3 Linecode=4c_.06 Length=3.6088 Units=m
New Line.LINE1069 Bus1=1050 Bus2=1070 phases=3 Linecode=2c_.04 Length=5.3474 Units=m
New Line.LINE1070 Bus1=1050 Bus2=1071 phases=3 Linecode=2c_.04 Length=5.3474 Units=m
New Line.LINE1113 Bus1=1097 Bus2=1114 phases=3 Linecode=2c_.04 Length=5.3997 Units=m
New Line.LINE1118 Bus1=1101 Bus2=1119 phases=3 Linecode=2c_.04 Length=3.895 Units=m
New Line.LINE1119 Bus1=1101 Bus2=1120 phases=3 Linecode=2c_.04 Length=3.895 Units=m
New Line.LINE1124 Bus1=1106 Bus2=1125 phases=3 Linecode=2c_.04 Length=5.937 Units=m
New Line.LINE1125 Bus1=1106 Bus2=1126 phases=3 Linecode=2c_.04 Length=5.937 Units=m
New Line.LINE1164 Bus1=1147 Bus2=1165 phases=3 Linecode=2c_.04 Length=4.1276 Units=m
New Line.LINE1173 Bus1=1156 Bus2=1174 phases=3 Linecode=2c_.04 Length=4.9159 Units=m
New Line.LINE1247 Bus1=1235 Bus2=1248 phases=3 Linecode=2c_.04 Length=7.6118 Units=m
New Line.LINE1251 Bus1=1238 Bus2=1252 phases=3 Linecode=2c_.04 Length=2.3274 Units=m
New Line.LINE1252 Bus1=1238 Bus2=1253 phases=3 Linecode=2c_.04 Length=2.3274 Units=m
New Line.LINE1253 Bus1=1239 Bus2=1254 phases=3 Linecode=2c_.04 Length=8.006 Units=m
New Line.LINE1254 Bus1=1239 Bus2=1255 phases=3 Linecode=2c_.04 Length=8.006 Units=m
New Line.LINE1280 Bus1=1268 Bus2=1281 phases=3 Linecode=2c_.04 Length=5.4981 Units=m
New Line.LINE1281 Bus1=1268 Bus2=1282 phases=3 Linecode=2c_.04 Length=5.4981 Units=m
New Line.LINE1284 Bus1=1270 Bus2=1285 phases=3 Linecode=4c_.25 Length=0.014075 Units=m
New Line.LINE1308 Bus1=1297 Bus2=1309 phases=3 Linecode=4c_.04 Length=11.433 Units=m
New Line.LINE1315 Bus1=1303 Bus2=1316 phases=3 Linecode=2c_.04 Length=6.8632 Units=m
New Line.LINE1316 Bus1=1303 Bus2=1317 phases=3 Linecode=2c_.04 Length=6.8632 Units=m
New Line.LINE1333 Bus1=1322 Bus2=1334 phases=3 Linecode=2c_.04 Length=5.1168 Units=m
New Line.LINE1334 Bus1=1322 Bus2=1335 phases=3 Linecode=2c_.04 Length=5.1168 Units=m
New Line.LINE1343 Bus1=1331 Bus2=1344 phases=3 Linecode=2c_.04 Length=3.3703 Units=m
New Line.LINE1344 Bus1=1331 Bus2=1345 phases=3 Linecode=2c_.04 Length=3.3703 Units=m
New Line.LINE1354 Bus1=1342 Bus2=1355 phases=3 Linecode=2c_.04 Length=3.7568 Units=m
New Line.LINE1368 Bus1=1359 Bus2=1369 phases=3 Linecode=2c_.04 Length=6.5888 Units=m
New Line.LINE1370 Bus1=1360 Bus2=1371 phases=3 Linecode=2c_.04 Length=5.1502 Units=m
New Line.LINE1396 Bus1=1386 Bus2=1397 phases=3 Linecode=2c_.04 Length=3.2571 Units=m
New Line.LINE1412 Bus1=1402 Bus2=1413 phases=3 Linecode=2c_.04 Length=3.4625 Units=m
New Line.LINE1418 Bus1=1408 Bus2=1419 phases=3 Linecode=2c_.04 Length=4.4401 Units=m
New Line.LINE1419 Bus1=1408 Bus2=1420 phases=3 Linecode=2c_.04 Length=4.4401 Units=m
New Line.LINE1428 Bus1=1417 Bus2=1429 phases=3 Linecode=4c_.06 Length=3.7072 Units=m
New Line.LINE1435 Bus1=1424 Bus2=1436 phases=3 Linecode=2c_.04 Length=4.3498 Units=m
New Line.LINE1474 Bus1=1467 Bus2=1475 phases=3 Linecode=2c_.04 Length=0.49008 Units=m
New Line.LINE1475 Bus1=1467 Bus2=1476 phases=3 Linecode=2c_.04 Length=2.0999 Units=m
New Line.LINE1477 Bus1=1469 Bus2=1478 phases=3 Linecode=2c_.04 Length=6.0455 Units=m
New Line.LINE1485 Bus1=1475 Bus2=1486 phases=3 Linecode=3c_.04 Length=4.0441 Units=m
New Line.LINE1487 Bus1=1476 Bus2=1488 phases=3 Linecode=3c_.04 Length=3.2927 Units=m
New Line.LINE1513 Bus1=1503 Bus2=1514 phases=3 Linecode=2c_.04 Length=4.8397 Units=m
New Line.LINE1514 Bus1=1503 Bus2=1515 phases=3 Linecode=2c_.04 Length=7.2461 Units=m
New Line.LINE1547 Bus1=1540 Bus2=1548 phases=3 Linecode=4c_.04 Length=11.6486 Units=m
New Line.LINE1600 Bus1=1593 Bus2=1601 phases=3 Linecode=2c_.04 Length=4.121 Units=m
New Line.LINE1610 Bus1=1603 Bus2=1611 phases=3 Linecode=2c_.04 Length=3.7745 Units=m
New Line.LINE1672 Bus1=1665 Bus2=1673 phases=3 Linecode=25_SAC_XC Length=8.012 Units=m
New Line.LINE1680 Bus1=1673 Bus2=1681 phases=3 Linecode=25_SAC_XC Length=5.6849 Units=m
New Line.LINE1684 Bus1=1675 Bus2=1685 phases=3 Linecode=2c_.04 Length=4.092 Units=m
New Line.LINE1686 Bus1=1676 Bus2=1687 phases=3 Linecode=2c_.04 Length=2.6414 Units=m
New Line.LINE1688 Bus1=1679 Bus2=1689 phases=3 Linecode=2c_.04 Length=4.3083 Units=m
New Line.LINE1702 Bus1=1696 Bus2=1703 phases=3 Linecode=2c_.04 Length=3.5021 Units=m
New Line.LINE1716 Bus1=1711 Bus2=1717 phases=3 Linecode=4_XSC Length=12.7368 Units=m
New Line.LINE1733 Bus1=1729 Bus2=1734 phases=3 Linecode=4c_.25 Length=4.1446 Units=m
New Line.LINE1738 Bus1=1734 Bus2=1739 phases=3 Linecode=2c_.04 Length=6.0382 Units=m
New Line.LINE1750 Bus1=1744 Bus2=1751 phases=3 Linecode=4c_.06 Length=6.3105 Units=m
New Line.LINE1781 Bus1=1775 Bus2=1782 phases=3 Linecode=2c_.04 Length=5.0161 Units=m
New Line.LINE1785 Bus1=1777 Bus2=1786 phases=3 Linecode=4c_.25 Length=13.6692 Units=m
New Line.LINE1793 Bus1=1786 Bus2=1794 phases=3 Linecode=4c_.25 Length=5.0371 Units=m
New Line.LINE1796 Bus1=1789 Bus2=1797 phases=3 Linecode=2c_.04 Length=4.6746 Units=m
New Line.LINE1802 Bus1=1794 Bus2=1803 phases=3 Linecode=4c_.25 Length=21.4132 Units=m
New Line.LINE1807 Bus1=1799 Bus2=1808 phases=3 Linecode=2c_.04 Length=2.9815 Units=m
New Line.LINE1810 Bus1=1801 Bus2=1811 phases=3 Linecode=2c_.04 Length=4.1446 Units=m
New Line.LINE1814 Bus1=1803 Bus2=1815 phases=3 Linecode=2c_.04 Length=6.1171 Units=m
New Line.LINE1901 Bus1=1889 Bus2=1902 phases=3 Linecode=2c_.04 Length=5.1606 Units=m
New Line.LINE1937 Bus1=1925 Bus2=1938 phases=3 Linecode=2c_.04 Length=6.9709 Units=m
New Line.LINE1938 Bus1=1926 Bus2=1939 phases=3 Linecode=2c_.04 Length=3.3374 Units=m
New Line.LINE1968 Bus1=1956 Bus2=1969 phases=3 Linecode=2c_.04 Length=4.7033 Units=m
New Line.LINE2009 Bus1=1995 Bus2=2010 phases=3 Linecode=4c_.06 Length=3.1868 Units=m
New Line.LINE2018 Bus1=2004 Bus2=2019 phases=3 Linecode=3c_.04 Length=5.3502 Units=m
New Line.LINE2020 Bus1=2005 Bus2=2021 phases=3 Linecode=3c_.04 Length=3.3252 Units=m
New Line.LINE2026 Bus1=2010 Bus2=2027 phases=3 Linecode=2c_.04 Length=8.3027 Units=m
New Line.LINE2032 Bus1=2015 Bus2=2033 phases=3 Linecode=3c_95_SAC_XC Length=0.81763 Units=m
New Line.LINE2073 Bus1=2051 Bus2=2074 phases=3 Linecode=4c_.25 Length=15.6609 Units=m
New Line.LINE2120 Bus1=2095 Bus2=2121 phases=3 Linecode=4c_.06 Length=0.41813 Units=m
New Line.LINE2189 Bus1=2165 Bus2=2190 phases=3 Linecode=2c_.04 Length=5.2738 Units=m
New Line.LINE2191 Bus1=2166 Bus2=2192 phases=3 Linecode=25_SAC_XC Length=6.0758 Units=m
New Line.LINE2193 Bus1=2167 Bus2=2194 phases=3 Linecode=2c_.04 Length=4.2738 Units=m
New Line.LINE2209 Bus1=2180 Bus2=2210 phases=3 Linecode=3c_95_SAC_XC Length=2.7676 Units=m
New Line.LINE2236 Bus1=2210 Bus2=2237 phases=3 Linecode=3c_95_SAC_XC Length=4.2382 Units=m
New Line.LINE2278 Bus1=2251 Bus2=2279 phases=3 Linecode=2c_.04 Length=3.5743 Units=m
New Line.LINE2279 Bus1=2251 Bus2=2280 phases=3 Linecode=2c_.04 Length=3.5743 Units=m
New Line.LINE2287 Bus1=2259 Bus2=2288 phases=3 Linecode=2c_.04 Length=4.0072 Units=m
New Line.LINE2305 Bus1=2276 Bus2=2306 phases=3 Linecode=2c_.04 Length=3.8839 Units=m
New Line.LINE2309 Bus1=2278 Bus2=2310 phases=3 Linecode=4c_.06 Length=1.762 Units=m
New Line.LINE2315 Bus1=2286 Bus2=2316 phases=3 Linecode=4c_.25 Length=13.0437 Units=m
New Line.LINE2316 Bus1=2286 Bus2=2317 phases=3 Linecode=2c_.04 Length=13.2658 Units=m
New Line.LINE2326 Bus1=2296 Bus2=2327 phases=3 Linecode=3c_95_SAC_XC Length=1.4484 Units=m
New Line.LINE2329 Bus1=2300 Bus2=2330 phases=3 Linecode=35_SAC_PC Length=4.4194 Units=m
New Line.LINE2345 Bus1=2317 Bus2=2346 phases=3 Linecode=2c_.04 Length=3.2062 Units=m
New Line.LINE2356 Bus1=2327 Bus2=2357 phases=3 Linecode=3c_95_SAC_XC Length=7.3035 Units=m
New Line.LINE2358 Bus1=2330 Bus2=2359 phases=3 Linecode=35_SAC_PC Length=0.1016 Units=m
New Line.LINE2368 Bus1=2340 Bus2=2369 phases=3 Linecode=2c_.04 Length=4.5148 Units=m
New Line.LINE2370 Bus1=2341 Bus2=2371 phases=3 Linecode=2c_.04 Length=5.2818 Units=m
New Line.LINE2378 Bus1=2347 Bus2=2379 phases=3 Linecode=2c_.04 Length=3.6768 Units=m
New Line.LINE2428 Bus1=2402 Bus2=2429 phases=3 Linecode=2c_.04 Length=4.4318 Units=m
New Line.LINE2463 Bus1=2438 Bus2=2464 phases=3 Linecode=25_SAC_XC Length=6.8433 Units=m
New Line.LINE2464 Bus1=2438 Bus2=2465 phases=3 Linecode=25_SAC_XC Length=6.8433 Units=m
New Line.LINE2482 Bus1=2457 Bus2=2483 phases=3 Linecode=2c_.04 Length=4.9182 Units=m
New Line.LINE2493 Bus1=2469 Bus2=2494 phases=3 Linecode=35_SAC_PC Length=3.6023 Units=m
New Line.LINE2514 Bus1=2494 Bus2=2515 phases=3 Linecode=35_SAC_PC Length=0.089022 Units=m
New Line.LINE2534 Bus1=2513 Bus2=2535 phases=3 Linecode=35_SAC_PC Length=6.9347 Units=m
New Line.LINE2547 Bus1=2529 Bus2=2548 phases=3 Linecode=2c_.04 Length=4.3401 Units=m
New Line.LINE2554 Bus1=2535 Bus2=2555 phases=3 Linecode=35_SAC_PC Length=6.5649 Units=m
New Line.LINE2574 Bus1=2559 Bus2=2575 phases=3 Linecode=2c_.04 Length=4.7984 Units=m
New Line.LINE2576 Bus1=2560 Bus2=2577 phases=3 Linecode=2c_.04 Length=3.6907 Units=m
New Line.LINE2595 Bus1=2581 Bus2=2596 phases=3 Linecode=2c_.04 Length=5.1003 Units=m
New Line.LINE2597 Bus1=2582 Bus2=2598 phases=3 Linecode=2c_.04 Length=5.2284 Units=m
New Line.LINE2614 Bus1=2601 Bus2=2615 phases=3 Linecode=2c_.04 Length=3.3739 Units=m
New Line.LINE2653 Bus1=2641 Bus2=2654 phases=3 Linecode=2c_.04 Length=4.7561 Units=m
New Line.LINE2682 Bus1=2671 Bus2=2683 phases=3 Linecode=2c_.04 Length=4.633 Units=m
New Line.LINE2711 Bus1=2700 Bus2=2712 phases=3 Linecode=3c_.06 Length=2.3329 Units=m
New Line.LINE2723 Bus1=2711 Bus2=2724 phases=3 Linecode=3c_.06 Length=3.4674 Units=m
New Line.LINE2784 Bus1=2778 Bus2=2785 phases=3 Linecode=3c_.06 Length=5.0962 Units=m
New Line.LINE2786 Bus1=2779 Bus2=2787 phases=3 Linecode=2c_.04 Length=4.2977 Units=m
New Line.LINE2791 Bus1=2784 Bus2=2792 phases=3 Linecode=2c_.04 Length=5.9373 Units=m
New Line.LINE2802 Bus1=2797 Bus2=2803 phases=3 Linecode=2c_.04 Length=3.1556 Units=m
New Line.LINE2803 Bus1=2797 Bus2=2804 phases=3 Linecode=2c_.04 Length=3.1556 Units=m
New Line.LINE2814 Bus1=2810 Bus2=2815 phases=3 Linecode=2c_.04 Length=3.0263 Units=m
New Line.LINE2815 Bus1=2810 Bus2=2816 phases=3 Linecode=2c_.04 Length=3.0263 Units=m
New Line.LINE2823 Bus1=2820 Bus2=2824 phases=3 Linecode=2c_.04 Length=2.6178 Units=m
New Line.LINECmpd_0 Bus1=1925 Bus2=2444 phases=3 Linecode=2c_.007 Length=9.629555 Units=m
New Line.LINECmpd_1 Bus1=115 Bus2=203 phases=3 Linecode=2c_.007 Length=3.25958 Units=m
New Line.LINECmpd_2 Bus1=2276 Bus2=2633 phases=3 Linecode=2c_.04 Length=13.96667 Units=m
New Line.LINECmpd_3 Bus1=951 Bus2=1192 phases=3 Linecode=2c_.04 Length=18.328435 Units=m
New Line.LINECmpd_4 Bus1=62 Bus2=144 phases=3 Linecode=4c_.25 Length=12.637213 Units=m
New Line.LINECmpd_5 Bus1=1910 Bus2=2095 phases=3 Linecode=4c_.06 Length=28.382658 Units=m
New Line.LINECmpd_6 Bus1=1711 Bus2=1787 phases=3 Linecode=4_XSC Length=1.771216 Units=m
New Line.LINECmpd_7 Bus1=529 Bus2=609 phases=3 Linecode=4c_.04 Length=13.4326 Units=m
New Line.LINECmpd_8 Bus1=424 Bus2=713 phases=3 Linecode=2c_.04 Length=10.25 Units=m
New Line.LINECmpd_9 Bus1=225 Bus2=678 phases=3 Linecode=4_XSC Length=18.398791 Units=m
New Line.LINECmpd_10 Bus1=151 Bus2=218 phases=3 Linecode=2c_.04 Length=5.561817 Units=m
New Line.LINECmpd_11 Bus1=2671 Bus2=2820 phases=3 Linecode=2c_.04 Length=12.103752 Units=m
New Line.LINECmpd_12 Bus1=703 Bus2=874 phases=3 Linecode=16_PSC Length=1.24032 Units=m
New Line.LINECmpd_13 Bus1=2402 Bus2=2641 phases=3 Linecode=2c_.04 Length=15.434 Units=m
New Line.LINECmpd_14 Bus1=549 Bus2=1042 phases=3 Linecode=4_XSC Length=4.312149 Units=m
New Line.LINECmpd_15 Bus1=2820 Bus2=2841 phases=3 Linecode=2c_.04 Length=5.721701 Units=m
New Line.LINECmpd_16 Bus1=1889 Bus2=2110 phases=3 Linecode=2c_.04 Length=14.433883 Units=m
New Line.LINECmpd_17 Bus1=1128 Bus2=1206 phases=3 Linecode=4c_.06 Length=6.28956 Units=m
New Line.LINECmpd_18 Bus1=1775 Bus2=1894 phases=3 Linecode=2c_.04 Length=15.130611 Units=m
New Line.LINECmpd_19 Bus1=214 Bus2=352 phases=3 Linecode=2c_.04 Length=14.89157 Units=m
New Line.LINECmpd_20 Bus1=2166 Bus2=2472 phases=3 Linecode=25_SAC_XC Length=12.88521 Units=m
New Line.LINECmpd_21 Bus1=1424 Bus2=1626 phases=3 Linecode=2c_.04 Length=22.489367 Units=m
New Line.LINECmpd_22 Bus1=2559 Bus2=2759 phases=3 Linecode=2c_.04 Length=13.67486 Units=m
New Line.LINECmpd_23 Bus1=1786 Bus2=1968 phases=3 Linecode=4c_.06 Length=14.174 Units=m
New Line.LINECmpd_24 Bus1=994 Bus2=1170 phases=3 Linecode=2c_.007 Length=8.64559 Units=m
New Line.LINECmpd_25 Bus1=300 Bus2=331 phases=3 Linecode=4c_.25 Length=11.5025 Units=m
New Line.LINECmpd_26 Bus1=151 Bus2=205 phases=3 Linecode=2c_.04 Length=3.39014 Units=m
New Line.LINECmpd_27 Bus1=425 Bus2=565 phases=3 Linecode=2c_.04 Length=6.90096 Units=m
New Line.LINECmpd_28 Bus1=668 Bus2=1050 phases=3 Linecode=2c_.04 Length=21.70948 Units=m
New Line.LINECmpd_29 Bus1=799 Bus2=935 phases=3 Linecode=4c_.06 Length=8.364005 Units=m
New Line.LINECmpd_30 Bus1=329 Bus2=444 phases=3 Linecode=2c_.04 Length=5.60603 Units=m
New Line.LINECmpd_31 Bus1=842 Bus2=1156 phases=3 Linecode=2c_.04 Length=11.631718 Units=m
New Line.LINECmpd_32 Bus1=1799 Bus2=1956 phases=3 Linecode=2c_.04 Length=6.905779 Units=m
New Line.LINECmpd_33 Bus1=1050 Bus2=1106 phases=3 Linecode=2c_.04 Length=6.32018 Units=m
New Line.LINECmpd_34 Bus1=2033 Bus2=2328 phases=3 Linecode=35_SAC_PC Length=16.96801 Units=m
New Line.LINECmpd_35 Bus1=2074 Bus2=2259 phases=3 Linecode=2c_.04 Length=6.213506 Units=m
New Line.LINECmpd_36 Bus1=1386 Bus2=1552 phases=3 Linecode=2c_.04 Length=18.655965 Units=m
New Line.LINECmpd_37 Bus1=666 Bus2=1242 phases=3 Linecode=4_XSC Length=12.463637 Units=m
New Line.LINECmpd_38 Bus1=131 Bus2=243 phases=3 Linecode=2c_.04 Length=8.544922 Units=m
New Line.LINECmpd_39 Bus1=1835 Bus2=1886 phases=3 Linecode=4c_.25 Length=6.7821 Units=m
New Line.LINECmpd_40 Bus1=2048 Bus2=2573 phases=3 Linecode=2c_.007 Length=11.520015 Units=m
New Line.LINECmpd_41 Bus1=2259 Bus2=2672 phases=3 Linecode=2c_.04 Length=12.408518 Units=m
New Line.LINECmpd_42 Bus1=208 Bus2=558 phases=3 Linecode=4c_.25 Length=5.980297 Units=m
New Line.LINECmpd_43 Bus1=1673 Bus2=1764 phases=3 Linecode=25_SAC_XC Length=18.876806 Units=m
New Line.LINECmpd_44 Bus1=181 Bus2=936 phases=3 Linecode=4_XSC Length=6.890947 Units=m
New Line.LINECmpd_45 Bus1=731 Bus2=1270 phases=3 Linecode=4c_.25 Length=30.02323 Units=m
New Line.LINECmpd_46 Bus1=1503 Bus2=1652 phases=3 Linecode=2c_.04 Length=28.18889 Units=m
New Line.LINECmpd_47 Bus1=1439 Bus2=1592 phases=3 Linecode=4_XSC Length=2.091886 Units=m
New Line.LINECmpd_48 Bus1=201 Bus2=412 phases=3 Linecode=2c_.04 Length=11.72995 Units=m
New Line.LINECmpd_49 Bus1=1751 Bus2=1789 phases=3 Linecode=2c_.04 Length=6.58221 Units=m
New Line.LINECmpd_50 Bus1=1439 Bus2=1540 phases=3 Linecode=4c_.25 Length=16.47232 Units=m
New Line.LINECmpd_51 Bus1=1402 Bus2=1424 phases=3 Linecode=2c_.04 Length=7.0149 Units=m
New Line.LINECmpd_52 Bus1=1988 Bus2=2390 phases=3 Linecode=3c_95_SAC_XC Length=15.86308 Units=m
New Line.LINECmpd_53 Bus1=2784 Bus2=2837 phases=3 Linecode=2c_.04 Length=13.55912 Units=m
New Line.LINECmpd_54 Bus1=2341 Bus2=2582 phases=3 Linecode=2c_.04 Length=9.93371 Units=m
New Line.LINECmpd_55 Bus1=1110 Bus2=1210 phases=3 Linecode=4c_.06 Length=9.07449 Units=m
New Line.LINECmpd_56 Bus1=146 Bus2=214 phases=3 Linecode=2c_.04 Length=6.81071 Units=m
New Line.LINECmpd_57 Bus1=1475 Bus2=1676 phases=3 Linecode=2c_.04 Length=19.99679 Units=m
New Line.LINECmpd_58 Bus1=211 Bus2=251 phases=3 Linecode=2c_.04 Length=16.4452 Units=m
New Line.LINECmpd_59 Bus1=2005 Bus2=2243 phases=3 Linecode=2c_.04 Length=12.28058 Units=m
New Line.LINECmpd_60 Bus1=1815 Bus2=1926 phases=3 Linecode=2c_.04 Length=8.40575 Units=m
New Line.LINECmpd_61 Bus1=1360 Bus2=1449 phases=3 Linecode=2c_.04 Length=13.0204 Units=m
New Line.LINECmpd_62 Bus1=1359 Bus2=1469 phases=3 Linecode=2c_.04 Length=7.257082 Units=m
New Line.LINECmpd_63 Bus1=1593 Bus2=1678 phases=3 Linecode=2c_.04 Length=12.09514 Units=m
New Line.LINECmpd_64 Bus1=2779 Bus2=2842 phases=3 Linecode=2c_.04 Length=19.224687 Units=m
New Line.LINECmpd_65 Bus1=2582 Bus2=2729 phases=3 Linecode=2c_.04 Length=13.18678 Units=m
New Line.LINECmpd_66 Bus1=2149 Bus2=2286 phases=3 Linecode=4c_.25 Length=10.28185 Units=m
New Line.LINECmpd_67 Bus1=1006 Bus2=1456 phases=3 Linecode=2c_.007 Length=11.870004 Units=m
New Line.LINECmpd_68 Bus1=1297 Bus2=1439 phases=3 Linecode=4c_.25 Length=16.239026 Units=m
New Line.LINECmpd_69 Bus1=604 Bus2=842 phases=3 Linecode=2c_.04 Length=16.91687 Units=m
New Line.LINECmpd_70 Bus1=411 Bus2=526 phases=3 Linecode=2c_.007 Length=1.33887 Units=m
New Line.LINECmpd_71 Bus1=582 Bus2=950 phases=3 Linecode=2c_.007 Length=9.440389 Units=m
New Line.LINECmpd_72 Bus1=218 Bus2=481 phases=3 Linecode=2c_.04 Length=12.162069 Units=m
New Line.LINECmpd_73 Bus1=1210 Bus2=1367 phases=3 Linecode=4c_.6 Length=15.19522 Units=m
New Line.LINECmpd_74 Bus1=2099 Bus2=2382 phases=3 Linecode=2c_.007 Length=20.74538 Units=m
New Line.LINECmpd_75 Bus1=639 Bus2=824 phases=3 Linecode=2c_.04 Length=11.0374 Units=m
New Line.LINECmpd_76 Bus1=1938 Bus2=2005 phases=3 Linecode=2c_.04 Length=2.10284 Units=m
New Line.LINECmpd_77 Bus1=1956 Bus2=2251 phases=3 Linecode=2c_.04 Length=14.258843 Units=m
New Line.LINECmpd_78 Bus1=1926 Bus2=2163 phases=3 Linecode=2c_.04 Length=13.72268 Units=m
New Line.LINECmpd_79 Bus1=2711 Bus2=2797 phases=3 Linecode=2c_.04 Length=6.700505 Units=m
New Line.LINECmpd_80 Bus1=565 Bus2=920 phases=3 Linecode=2c_.04 Length=11.08135 Units=m
New Line.LINECmpd_81 Bus1=1739 Bus2=1801 phases=3 Linecode=2c_.04 Length=3.530112 Units=m
New Line.LINECmpd_82 Bus1=2682 Bus2=2779 phases=3 Linecode=2c_.04 Length=9.606018 Units=m
New Line.LINECmpd_83 Bus1=1469 Bus2=1530 phases=3 Linecode=2c_.04 Length=11.04816 Units=m
New Line.LINECmpd_84 Bus1=1128 Bus2=1342 phases=3 Linecode=2c_.04 Length=21.175557 Units=m
New Line.LINECmpd_85 Bus1=2027 Bus2=2276 phases=3 Linecode=2c_.04 Length=4.395059 Units=m
New Line.LINECmpd_86 Bus1=955 Bus2=1093 phases=3 Linecode=2c_.007 Length=1.51508 Units=m
New Line.LINECmpd_87 Bus1=2121 Bus2=2228 phases=3 Linecode=2c_.04 Length=13.04828 Units=m
New Line.LINECmpd_88 Bus1=1423 Bus2=1466 phases=3 Linecode=4_XC Length=0.89713 Units=m
New Line.LINECmpd_89 Bus1=2237 Bus2=2536 phases=3 Linecode=3c_95_SAC_XC Length=2.22485 Units=m
New Line.LINECmpd_90 Bus1=1002 Bus2=1159 phases=3 Linecode=2c_.04 Length=12.41905 Units=m
New Line.LINECmpd_91 Bus1=494 Bus2=778 phases=3 Linecode=2c_.04 Length=13.20678 Units=m
New Line.LINECmpd_92 Bus1=1603 Bus2=1679 phases=3 Linecode=2c_.04 Length=7.402634 Units=m
New Line.LINECmpd_93 Bus1=505 Bus2=878 phases=3 Linecode=2c_.04 Length=11.264769 Units=m
New Line.LINECmpd_94 Bus1=243 Bus2=433 phases=3 Linecode=2c_.04 Length=14.001 Units=m
New Line.LINECmpd_95 Bus1=2778 Bus2=2831 phases=3 Linecode=2c_.04 Length=14.82283 Units=m
New Line.LINECmpd_96 Bus1=1988 Bus2=2300 phases=3 Linecode=35_SAC_PC Length=18.56925 Units=m
New Line.LINECmpd_97 Bus1=1476 Bus2=1696 phases=3 Linecode=2c_.04 Length=20.396941 Units=m
New Line.LINECmpd_98 Bus1=2278 Bus2=2660 phases=3 Linecode=2c_.007 Length=5.85304 Units=m
New Line.LINECmpd_99 Bus1=1801 Bus2=1944 phases=3 Linecode=2c_.04 Length=11.433594 Units=m
New Line.LINECmpd_100 Bus1=2727 Bus2=2784 phases=3 Linecode=2c_.04 Length=5.154998 Units=m
New Line.LINECmpd_101 Bus1=2346 Bus2=2586 phases=3 Linecode=25_PSC Length=6.86164 Units=m
New Line.LINECmpd_102 Bus1=1483 Bus2=1675 phases=3 Linecode=2c_.04 Length=6.126043 Units=m
New Line.LINECmpd_103 Bus1=974 Bus2=1097 phases=3 Linecode=2c_.04 Length=26.99903 Units=m
New Line.LINECmpd_104 Bus1=107 Bus2=184 phases=3 Linecode=4_XC Length=1.09758 Units=m
New Line.LINECmpd_105 Bus1=990 Bus2=1167 phases=3 Linecode=4_XSC Length=1.63003 Units=m
New Line.LINECmpd_106 Bus1=2027 Bus2=2167 phases=3 Linecode=2c_.04 Length=7.82372 Units=m
New Line.LINECmpd_107 Bus1=1206 Bus2=1374 phases=3 Linecode=2c_.007 Length=8.274819 Units=m
New Line.LINECmpd_108 Bus1=2033 Bus2=2099 phases=3 Linecode=3c_95_SAC_XC Length=5.0012 Units=m
New Line.LINECmpd_109 Bus1=1665 Bus2=1711 phases=3 Linecode=2c_.007 Length=2.140856 Units=m
New Line.LINECmpd_110 Bus1=2560 Bus2=2781 phases=3 Linecode=2c_.04 Length=12.69684 Units=m
New Line.LINECmpd_111 Bus1=2180 Bus2=2410 phases=3 Linecode=3c_95_SAC_XC Length=8.07817 Units=m
New Line.LINECmpd_112 Bus1=425 Bus2=592 phases=3 Linecode=2c_.04 Length=1.401143 Units=m
New Line.LINECmpd_113 Bus1=1260 Bus2=1386 phases=3 Linecode=2c_.04 Length=13.66641 Units=m
New Line.LINECmpd_114 Bus1=2457 Bus2=2601 phases=3 Linecode=2c_.04 Length=6.1587 Units=m
New Line.LINECmpd_115 Bus1=1948 Bus2=2051 phases=3 Linecode=4c_.25 Length=33.6181 Units=m
New Line.LINECmpd_116 Bus1=990 Bus2=1110 phases=3 Linecode=4c_.06 Length=12.445 Units=m
New Line.LINECmpd_117 Bus1=368 Bus2=494 phases=3 Linecode=2c_.04 Length=5.801291 Units=m
New Line.LINECmpd_118 Bus1=1 Bus2=32 phases=3 Linecode=3c_300_SAC_XC Length=42.202959 Units=m
New Line.LINECmpd_119 Bus1=2700 Bus2=2810 phases=3 Linecode=2c_.04 Length=6.739836 Units=m
New Line.LINECmpd_120 Bus1=2641 Bus2=2754 phases=3 Linecode=2c_.04 Length=11.31091 Units=m
New Line.LINECmpd_121 Bus1=2033 Bus2=2298 phases=3 Linecode=35_SAC_PC Length=17.49655 Units=m
New Line.LINECmpd_122 Bus1=669 Bus2=795 phases=3 Linecode=16_PSC Length=7.673 Units=m
New Line.LINECmpd_123 Bus1=994 Bus2=1239 phases=3 Linecode=2c_.04 Length=16.72067 Units=m
New Line.LINECmpd_124 Bus1=2346 Bus2=2603 phases=3 Linecode=2c_.04 Length=13.111895 Units=m
New Line.LINECmpd_125 Bus1=469 Bus2=748 phases=3 Linecode=2c_.04 Length=13.84201 Units=m
New Line.LINECmpd_126 Bus1=1147 Bus2=1235 phases=3 Linecode=2c_.04 Length=5.938147 Units=m
New Line.LINECmpd_127 Bus1=2026 Bus2=2165 phases=3 Linecode=2c_.04 Length=6.49895 Units=m
New Line.LINECmpd_128 Bus1=338 Bus2=505 phases=3 Linecode=2c_.04 Length=2.76944 Units=m
New Line.LINECmpd_129 Bus1=1423 Bus2=1467 phases=3 Linecode=4c_.06 Length=17.7675 Units=m
New Line.LINECmpd_130 Bus1=1367 Bus2=1423 phases=3 Linecode=4c_.06 Length=4.99001 Units=m
New Line.LINECmpd_131 Bus1=2048 Bus2=2278 phases=3 Linecode=4c_.06 Length=24.73215 Units=m
New Line.LINECmpd_132 Bus1=294 Bus2=534 phases=3 Linecode=2c_.04 Length=8.36087 Units=m
New Line.LINECmpd_133 Bus1=868 Bus2=1021 phases=3 Linecode=2c_.04 Length=9.16643 Units=m
New Line.LINECmpd_134 Bus1=1835 Bus2=1925 phases=3 Linecode=2c_.04 Length=6.34829 Units=m
New Line.LINECmpd_135 Bus1=991 Bus2=1211 phases=3 Linecode=2c_.04 Length=13.65365 Units=m
New Line.LINECmpd_136 Bus1=2004 Bus2=2216 phases=3 Linecode=2c_.04 Length=12.32635 Units=m
New Line.LINECmpd_137 Bus1=2149 Bus2=2485 phases=3 Linecode=4_XSC Length=3.58655 Units=m
New Line.LINECmpd_138 Bus1=251 Bus2=421 phases=3 Linecode=2c_.04 Length=21.82432 Units=m
New Line.LINECmpd_139 Bus1=1210 Bus2=1402 phases=3 Linecode=2c_.04 Length=22.613187 Units=m
New Line.LINECmpd_140 Bus1=1540 Bus2=1643 phases=3 Linecode=4c_.25 Length=25.41092 Units=m
New Line.LINECmpd_141 Bus1=2601 Bus2=2755 phases=3 Linecode=2c_.04 Length=11.96001 Units=m
New Line.LINECmpd_142 Bus1=2296 Bus2=2469 phases=3 Linecode=35_SAC_PC Length=15.84052 Units=m
New Line.LINECmpd_143 Bus1=1643 Bus2=1729 phases=3 Linecode=4c_.25 Length=14.20152 Units=m
New Line.LINECmpd_144 Bus1=2398 Bus2=2560 phases=3 Linecode=2c_.04 Length=4.48688 Units=m
New Line.LINECmpd_145 Bus1=1675 Bus2=1741 phases=3 Linecode=2c_.04 Length=20.74307 Units=m
New Line.LINECmpd_146 Bus1=208 Bus2=278 phases=3 Linecode=4c_.25 Length=17.15789 Units=m
New Line.LINECmpd_147 Bus1=1789 Bus2=1929 phases=3 Linecode=2c_.04 Length=12.191618 Units=m
New Line.LINECmpd_148 Bus1=92 Bus2=181 phases=3 Linecode=4c_.25 Length=15.02564 Units=m
New Line.LINECmpd_149 Bus1=1101 Bus2=1268 phases=3 Linecode=2c_.04 Length=15.32595 Units=m
New Line.LINECmpd_150 Bus1=2167 Bus2=2517 phases=3 Linecode=2c_.04 Length=13.765399 Units=m
New Line.LINECmpd_151 Bus1=1156 Bus2=1322 phases=3 Linecode=2c_.04 Length=13.804816 Units=m
New Line.LINECmpd_152 Bus1=1794 Bus2=1904 phases=3 Linecode=4c_.25 Length=2.14297 Units=m
New Line.LINECmpd_153 Bus1=1910 Bus2=2030 phases=3 Linecode=4c_.06 Length=2.650065 Units=m
New Line.LINECmpd_154 Bus1=56 Bus2=97 phases=3 Linecode=2c_.04 Length=7.3354 Units=m
New Line.LINECmpd_155 Bus1=2310 Bus2=2502 phases=3 Linecode=4c_.06 Length=7.32675 Units=m
New Line.LINECmpd_156 Bus1=200 Bus2=265 phases=3 Linecode=2c_.04 Length=10.76208 Units=m
New Line.LINECmpd_157 Bus1=935 Bus2=1029 phases=3 Linecode=4c_.06 Length=5.45406 Units=m
New Line.LINECmpd_158 Bus1=56 Bus2=96 phases=3 Linecode=2c_.04 Length=4.99077 Units=m
New Line.LINECmpd_159 Bus1=1309 Bus2=1360 phases=3 Linecode=2c_.04 Length=3.83215 Units=m
New Line.LINECmpd_160 Bus1=667 Bus2=1002 phases=3 Linecode=2c_.04 Length=21.84471 Units=m
New Line.LINECmpd_161 Bus1=1777 Bus2=1834 phases=3 Linecode=4c_.06 Length=9.12811 Units=m
New Line.LINECmpd_162 Bus1=1248 Bus2=1303 phases=3 Linecode=2c_.04 Length=7.69014 Units=m
New Line.LINECmpd_163 Bus1=528 Bus2=668 phases=3 Linecode=2c_.04 Length=4.91212 Units=m
New Line.LINECmpd_164 Bus1=1097 Bus2=1238 phases=3 Linecode=2c_.04 Length=6.833733 Units=m
New Line.LINECmpd_165 Bus1=444 Bus2=679 phases=3 Linecode=2c_.04 Length=10.69284 Units=m
New Line.LINECmpd_166 Bus1=142 Bus2=198 phases=3 Linecode=4c_.25 Length=32.18982 Units=m
New Line.LINECmpd_167 Bus1=812 Bus2=1101 phases=3 Linecode=2c_.04 Length=16.53181 Units=m
New Line.LINECmpd_168 Bus1=1968 Bus2=2302 phases=3 Linecode=4_XSC Length=2.046327 Units=m
New Line.LINECmpd_169 Bus1=389 Bus2=595 phases=3 Linecode=4_XC Length=1.12774 Units=m
New Line.LINECmpd_170 Bus1=2317 Bus2=2529 phases=3 Linecode=2c_.04 Length=8.854828 Units=m
New Line.LINECmpd_171 Bus1=2074 Bus2=2347 phases=3 Linecode=2c_.04 Length=4.606217 Units=m
New Line.LINECmpd_172 Bus1=2180 Bus2=2438 phases=3 Linecode=25_SAC_XC Length=8.37153 Units=m
New Line.LINECmpd_173 Bus1=2165 Bus2=2471 phases=3 Linecode=2c_.04 Length=12.05257 Units=m
New Line.LINECmpd_174 Bus1=2015 Bus2=2157 phases=3 Linecode=35_SAC_PC Length=16.5537 Units=m
New Line.LINECmpd_175 Bus1=1734 Bus2=1777 phases=3 Linecode=4c_.25 Length=28.52089 Units=m
New Line.LINECmpd_176 Bus1=1260 Bus2=1417 phases=3 Linecode=4c_.06 Length=19.90191 Units=m
New Line.LINECmpd_177 Bus1=1206 Bus2=1260 phases=3 Linecode=4c_.06 Length=5.80402 Units=m
New Line.LINECmpd_178 Bus1=1367 Bus2=1432 phases=3 Linecode=2c_.007 Length=7.90689 Units=m
New Line.LINECmpd_179 Bus1=2502 Bus2=2727 phases=3 Linecode=2c_.04 Length=21.14337 Units=m
New Line.LINECmpd_180 Bus1=528 Bus2=667 phases=3 Linecode=2c_.04 Length=3.36087 Units=m
New Line.LINECmpd_181 Bus1=1679 Bus2=1726 phases=3 Linecode=2c_.04 Length=11.24022 Units=m
New Line.LINECmpd_182 Bus1=2727 Bus2=2778 phases=3 Linecode=2c_.04 Length=2.4177 Units=m
New Line.LINECmpd_183 Bus1=2347 Bus2=2671 phases=3 Linecode=2c_.04 Length=7.597821 Units=m
New Line.LINECmpd_184 Bus1=955 Bus2=990 phases=3 Linecode=4c_.06 Length=23.6683 Units=m
New Line.LINECmpd_185 Bus1=1834 Bus2=1910 phases=3 Linecode=4c_.06 Length=8.72536 Units=m
New Line.LINECmpd_186 Bus1=2398 Bus2=2559 phases=3 Linecode=2c_.04 Length=8.793 Units=m
New Line.LINECmpd_187 Bus1=582 Bus2=799 phases=3 Linecode=4c_.06 Length=29.1004 Units=m
New Line.LINECmpd_188 Bus1=635 Bus2=868 phases=3 Linecode=2c_.04 Length=11.11288 Units=m
New Line.LINECmpd_189 Bus1=1938 Bus2=2004 phases=3 Linecode=2c_.04 Length=6.24043 Units=m
New Line.LINECmpd_190 Bus1=2581 Bus2=2753 phases=3 Linecode=2c_.04 Length=13.14925 Units=m
New Line.LINECmpd_191 Bus1=941 Bus2=1201 phases=3 Linecode=2c_.04 Length=17.30548 Units=m
New Line.LINECmpd_192 Bus1=284 Bus2=329 phases=3 Linecode=2c_.04 Length=16.046 Units=m
New Line.LINECmpd_193 Bus1=1235 Bus2=1319 phases=3 Linecode=2c_.04 Length=11.54806 Units=m
New Line.LINECmpd_194 Bus1=240 Bus2=284 phases=3 Linecode=4c_.25 Length=18.4074 Units=m
New Line.LINECmpd_195 Bus1=205 Bus2=434 phases=3 Linecode=2c_.04 Length=12.02879 Units=m
New Line.LINECmpd_196 Bus1=1751 Bus2=1799 phases=3 Linecode=2c_.04 Length=2.18848 Units=m
New Line.LINECmpd_197 Bus1=2529 Bus2=2682 phases=3 Linecode=2c_.04 Length=7.601695 Units=m
New Line.LINECmpd_198 Bus1=2051 Bus2=2149 phases=3 Linecode=4c_.25 Length=11.3729 Units=m
New Line.LINECmpd_199 Bus1=1548 Bus2=1603 phases=3 Linecode=2c_.04 Length=8.6072 Units=m
New Line.LINECmpd_200 Bus1=799 Bus2=899 phases=3 Linecode=2c_.007 Length=1.02504 Units=m
New Line.LINECmpd_201 Bus1=731 Bus2=789 phases=3 Linecode=4c_.4 Length=0.64708 Units=m
New Line.LINECmpd_202 Bus1=55 Bus2=110 phases=3 Linecode=4_XC Length=7.169311 Units=m
New Line.LINECmpd_203 Bus1=2210 Bus2=2554 phases=3 Linecode=3c_95_SAC_XC Length=2.22624 Units=m
New Line.LINECmpd_204 Bus1=198 Bus2=338 phases=3 Linecode=2c_.04 Length=6.53371 Units=m
New Line.LINECmpd_205 Bus1=2228 Bus2=2457 phases=3 Linecode=2c_.04 Length=5.62145 Units=m
New Line.LINECmpd_206 Bus1=1548 Bus2=1593 phases=3 Linecode=2c_.04 Length=5.112131 Units=m
New Line.LINECmpd_207 Bus1=2015 Bus2=2183 phases=3 Linecode=35_SAC_PC Length=16.54472 Units=m
New Line.LINECmpd_208 Bus1=456 Bus2=636 phases=3 Linecode=4_XC Length=1.09414 Units=m
New Line.LINECmpd_209 Bus1=2502 Bus2=2637 phases=3 Linecode=2c_.04 Length=18.31578 Units=m
New Line.LINECmpd_210 Bus1=1803 Bus2=1835 phases=3 Linecode=4c_.25 Length=6.287 Units=m
New Line.LINECmpd_211 Bus1=2173 Bus2=2341 phases=3 Linecode=2c_.04 Length=4.45224 Units=m
New Line.LINECmpd_212 Bus1=1744 Bus2=1879 phases=3 Linecode=2c_.007 Length=8.300793 Units=m
New Line.LINECmpd_213 Bus1=1729 Bus2=1744 phases=3 Linecode=4c_.06 Length=7.1584 Units=m
New Line.LINECmpd_214 Bus1=1886 Bus2=1948 phases=3 Linecode=4c_.25 Length=6.52538 Units=m
New Line.LINECmpd_215 Bus1=1815 Bus2=1889 phases=3 Linecode=2c_.04 Length=5.6334 Units=m
New Line.LINECmpd_216 Bus1=2340 Bus2=2581 phases=3 Linecode=2c_.04 Length=8.82803 Units=m
New Line.LINECmpd_217 Bus1=1968 Bus2=1995 phases=3 Linecode=4c_.06 Length=17.2844 Units=m
New Line.LINECmpd_218 Bus1=2682 Bus2=2757 phases=3 Linecode=.04_PSC Length=6.6907 Units=m
New Line.LINECmpd_219 Bus1=2237 Bus2=2513 phases=3 Linecode=35_SAC_PC Length=15.591467 Units=m
New Line.LINECmpd_220 Bus1=411 Bus2=456 phases=3 Linecode=4c_.06 Length=11.34846 Units=m
New Line.LINECmpd_221 Bus1=96 Bus2=201 phases=3 Linecode=2c_.04 Length=8.15639 Units=m
New Line.LINECmpd_222 Bus1=2310 Bus2=2398 phases=3 Linecode=2c_.04 Length=11.9089 Units=m
New Line.LINECmpd_223 Bus1=240 Bus2=411 phases=3 Linecode=4c_.06 Length=10.17503 Units=m
New Line.LINECmpd_224 Bus1=666 Bus2=731 phases=3 Linecode=4c_.25 Length=1.07195 Units=m
New Line.LINECmpd_225 Bus1=1834 Bus2=1957 phases=3 Linecode=4_XSC Length=20.63272 Units=m
New Line.LINECmpd_226 Bus1=881 Bus2=921 phases=3 Linecode=2c_.04 Length=4.69078 Units=m
New Line.LINECmpd_227 Bus1=1417 Bus2=1452 phases=3 Linecode=2c_.04 Length=13.17203 Units=m
New Line.LINECmpd_228 Bus1=2121 Bus2=2173 phases=3 Linecode=2c_.04 Length=14.3362 Units=m
New Line.LINECmpd_229 Bus1=483 Bus2=854 phases=3 Linecode=3c_.04 Length=12.477526 Units=m
New Line.LINECmpd_230 Bus1=2173 Bus2=2340 phases=3 Linecode=2c_.04 Length=2.59007 Units=m
New Line.LINECmpd_231 Bus1=2228 Bus2=2402 phases=3 Linecode=2c_.04 Length=3.83463 Units=m
New Line.LINECmpd_232 Bus1=1029 Bus2=1128 phases=3 Linecode=4c_.06 Length=6.74792 Units=m
New Line.LINECmpd_233 Bus1=609 Bus2=797 phases=3 Linecode=2c_.04 Length=10.82792 Units=m
New Line.LINECmpd_234 Bus1=1886 Bus2=1988 phases=3 Linecode=3c_95_SAC_XC Length=8.41393 Units=m
New Line.LINECmpd_235 Bus1=1342 Bus2=1408 phases=3 Linecode=2c_.04 Length=12.71498 Units=m
New Line.LINECmpd_236 Bus1=1948 Bus2=1987 phases=3 Linecode=4c_.25 Length=14.0931 Units=m
New Line.LINECmpd_237 Bus1=703 Bus2=873 phases=3 Linecode=2c_.04 Length=19.83383 Units=m
New Line.LINECmpd_238 Bus1=1429 Bus2=1453 phases=3 Linecode=2c_.007 Length=0.77187 Units=m
New Line.LINECmpd_239 Bus1=2026 Bus2=2166 phases=3 Linecode=25_SAC_XC Length=2.17128 Units=m
New Line.LINECmpd_240 Bus1=456 Bus2=504 phases=3 Linecode=4c_.06 Length=9.3328 Units=m
New Line.LINECmpd_241 Bus1=2095 Bus2=2172 phases=3 Linecode=2c_.007 Length=0.99259 Units=m
New Line.LINECmpd_242 Bus1=534 Bus2=855 phases=3 Linecode=2c_.04 Length=11.61301 Units=m
New Line.LINECmpd_243 Bus1=1248 Bus2=1331 phases=3 Linecode=2c_.04 Length=7.522293 Units=m
New Line.LINECmpd_244 Bus1=300 Bus2=404 phases=3 Linecode=4_XSC Length=2.03354 Units=m
New Line.LINECmpd_245 Bus1=368 Bus2=469 phases=3 Linecode=2c_.04 Length=5.96 Units=m
New Line.LINECmpd_246 Bus1=1452 Bus2=1503 phases=3 Linecode=2c_.04 Length=4.46115 Units=m
New Line.LINECmpd_247 Bus1=2327 Bus2=2516 phases=3 Linecode=3c_95_SAC_XC Length=14.527984 Units=m
New Line.LINECmpd_248 Bus1=338 Bus2=483 phases=3 Linecode=3c_.04 Length=6.648323 Units=m
New Line.LINECmpd_249 Bus1=2010 Bus2=2048 phases=3 Linecode=4c_.06 Length=8.7801 Units=m
New Line.LINECmpd_250 Bus1=1309 Bus2=1359 phases=3 Linecode=2c_.04 Length=9.25007 Units=m
New Line.LINECmpd_251 Bus1=123 Bus2=142 phases=3 Linecode=4c_.25 Length=19.714 Units=m
New Line.LINECmpd_252 Bus1=975 Bus2=1080 phases=3 Linecode=4_XC Length=1.03737 Units=m
New Line.LINECmpd_253 Bus1=2637 Bus2=2700 phases=3 Linecode=2c_.04 Length=1.042303 Units=m
New Line.LINECmpd_254 Bus1=2099 Bus2=2180 phases=3 Linecode=3c_95_SAC_XC Length=7.06771 Units=m
New Line.LINECmpd_255 Bus1=181 Bus2=200 phases=3 Linecode=4c_.25 Length=10.5445 Units=m
New Line.LINECmpd_256 Bus1=389 Bus2=430 phases=3 Linecode=4c_.25 Length=13.4988 Units=m
New Line.LINECmpd_257 Bus1=265 Bus2=296 phases=3 Linecode=2c_.04 Length=8.1226 Units=m
New Line.LINECmpd_258 Bus1=1643 Bus2=1665 phases=3 Linecode=25_SAC_XC Length=7.95294 Units=m
New Line.LINECmpd_259 Bus1=1452 Bus2=1483 phases=3 Linecode=2c_.04 Length=4.98199 Units=m
New Line.LINECmpd_260 Bus1=1676 Bus2=1695 phases=3 Linecode=2c_.04 Length=6.4777 Units=m
New Line.LINECmpd_261 Bus1=2637 Bus2=2711 phases=3 Linecode=2c_.04 Length=2.510049 Units=m
New Line.LINECmpd_262 Bus1=329 Bus2=424 phases=3 Linecode=2c_.04 Length=3.14004 Units=m
New Line.LINECmpd_263 Bus1=2095 Bus2=2145 phases=3 Linecode=2c_.007 Length=0.42802 Units=m
New Line.LINECmpd_264 Bus1=1739 Bus2=1775 phases=3 Linecode=2c_.04 Length=9.071212 Units=m
New Line.LINECmpd_265 Bus1=1995 Bus2=2026 phases=3 Linecode=25_SAC_XC Length=11.5198 Units=m
New Line.LINECmpd_266 Bus1=1270 Bus2=1297 phases=3 Linecode=4c_.25 Length=6.7016 Units=m
New Line.LINECmpd_267 Bus1=92 Bus2=107 phases=3 Linecode=4c_.25 Length=19.3573 Units=m
New Line.LINECmpd_268 Bus1=2237 Bus2=2296 phases=3 Linecode=3c_95_SAC_XC Length=6.057 Units=m
New Line.LINECmpd_269 Bus1=349 Bus2=389 phases=3 Linecode=4c_.25 Length=6.6474 Units=m
New Line.LINECmpd_270 Bus1=1483 Bus2=1504 phases=3 Linecode=2c_.04 Length=5.3834 Units=m
New Line.LINECmpd_271 Bus1=529 Bus2=582 phases=3 Linecode=4c_.06 Length=4.2432 Units=m
New Line.LINECmpd_272 Bus1=1429 Bus2=1454 phases=3 Linecode=4c_.06 Length=9.7068 Units=m
New Line.LINECmpd_273 Bus1=1988 Bus2=2015 phases=3 Linecode=3c_95_SAC_XC Length=2.74405 Units=m
New Line.LINECmpd_274 Bus1=1696 Bus2=1709 phases=3 Linecode=2c_.04 Length=7.4621 Units=m
New Line.LINECmpd_275 Bus1=1110 Bus2=1147 phases=3 Linecode=2c_.04 Length=14.7395 Units=m
